  468
 i =    20003, time =    10001.500, E =     -1896.6014359693
C      3.10142945    3.94981710    4.96458905
C      1.68183536    3.46237040    6.89146342
C      2.87650993    1.71292905    5.37759981
C      3.65929007    1.89739483    4.20259928
C      4.51556948    3.72928630    2.73523637
C      2.25055025    2.90035413    8.18458309
H      3.11361887    5.04567490    5.16070000
H      0.69348772    3.08329449    6.62596238
H      1.76659104    4.54182759    6.80227983
H      2.54566769    0.90386650    6.01096801
H      4.00670183    1.22472750    3.47776481
H      4.02204814    3.33137071    1.92235046
H      5.57375238    3.26384976    2.70228380
H      4.55270131    4.81268240    2.67618324
H      3.33245390    3.29957904    8.33796226
H      1.52410508    3.07031688    9.09714532
H      2.42033096    1.78475202    8.13020554
N      2.56480597    3.02042853    5.74229935
N      3.73500803    3.26430329    3.96107059
C      6.85371455   14.79567945   13.88175238
C      7.84588071   17.23754527   14.15284103
C      7.65077954   15.35786367   15.99309399
C      7.26030559   14.04952994   15.92841773
C      6.30702812   12.35817737   14.19167493
C      9.28099075   17.35520012   13.72022728
H      6.48772404   14.83615534   12.79754437
H      7.16983801   17.50030951   13.39498843
H      7.70380832   17.87067984   15.11920526
H      7.95622170   15.97861173   16.85522922
H      7.24732269   13.27841083   16.58424367
H      7.10867774   11.57426137   14.22204144
H      6.03399470   12.48772302   13.11029502
H      5.48089917   12.12273118   14.87601756
H     10.00821104   16.98733780   14.41080318
H      9.62363023   16.80164778   12.79717420
H      9.51196596   18.43085757   13.72151324
N      7.50189779   15.80224058   14.61375455
N      6.89269293   13.70961604   14.65829371
C     11.65445064    8.77950300   14.70207694
C     13.64382511    8.16721741   16.21135841
C     11.76062602    6.54631478   15.16151156
C     10.69508621    6.75547584   14.30172095
C      9.76488287    8.89101583   13.12302342
C     13.80375380    7.51482001   17.55996558
H     11.63487296    9.87660360   14.69845526
H     14.54221722    7.87542931   15.54140998
H     13.60272245    9.31659639   16.30467529
H     12.20225929    5.57279170   15.47522176
H      9.99406490    6.13728667   13.74030849
H      8.93252140    9.31449151   13.75842133
H     10.40619004    9.75443819   12.74268982
H      9.50241446    8.28745186   12.24498498
H     13.14175269    7.83802803   18.35193765
H     14.85192985    7.75307989   17.80383363
H     13.72748052    6.45783275   17.50877874
N     12.35186143    7.80515583   15.45026823
N     10.68451065    8.08131092   14.03284986
C     13.52358872    6.04746963    8.67824098
C     15.59502974    7.11943837    9.74537076
C     13.23987992    6.38009086   10.78582577
C     12.04496873    5.88136656   10.36816115
C     11.18098882    5.04958944    8.08915187
C     16.64293968    5.99105015    9.41809170
H     13.89630118    6.13222066    7.69036077
H     15.83529877    7.42597604   10.76170330
H     15.60235772    7.99704857    9.10874973
H     13.59604063    6.66784227   11.81203855
H     11.24718211    5.64598610   11.01865146
H     10.27794850    5.32663061    8.66455745
H     11.31223056    3.95120827    8.24079613
H     11.29888719    5.47804702    7.07166034
H     16.50034513    5.56621630    8.46417388
H     17.59023514    6.44485273    9.72485452
H     16.39504339    5.21093453   10.11205239
N     14.14867820    6.48445649    9.73246242
N     12.26286605    5.67058202    8.92776183
C      3.12189427   11.22990193    9.28070834
C      1.64545661   10.25045659   11.21184655
C      4.17510003   11.00532721   11.20799365
C      5.14344868   11.35184090   10.35469928
C      4.99089821   12.11260274    7.83930282
C      1.45508954   10.95158391   12.58704546
H      2.36198777   11.43288388    8.56454653
H      0.86338044   10.51531499   10.51875460
H      1.76570286    9.20492464   11.19760100
H      4.29923258   10.69199154   12.22523135
H      6.15955886   11.48360104   10.57071069
H      5.98481834   12.49405448    8.05762529
H      4.32077568   12.91682371    7.62709200
H      5.08134150   11.25760572    7.16087344
H      2.27944125   10.76376236   13.23188882
H      0.55541126   10.47136027   13.13979858
H      1.26733823   12.04227667   12.41282244
N      2.94141369   10.87631454   10.57074224
N      4.41346180   11.57951061    9.20475483
C     10.26683745   11.12967656    9.06105568
C      9.17913061   10.09623120    7.05719721
C     11.16948528    9.13767932    8.53485056
C     11.81843214    9.52946801    9.61095587
C     11.70559542   11.70599449   10.92022502
C      8.12130687    9.02742595    7.54124970
H      9.48030060   11.94608849    9.20052710
H      9.67231325    9.84279367    6.14778282
H      8.74343049   11.14880776    7.04934667
H     11.30506423    8.21657760    7.97860682
H     12.56044351    9.02169662   10.26714047
H     10.98333126   12.56466721   10.99527574
H     12.71531533   12.11140884   10.60620688
H     11.71828894   11.21644928   11.86331257
H      8.70485623    8.16383378    7.73197070
H      7.46323610    9.29659115    8.30745491
H      7.47048893    8.74996612    6.68003675
N     10.22261672   10.10227362    8.15418017
N     11.24000007   10.78909513    9.90005976
C     16.55174064   15.02085006   12.40747638
C     15.54658107   15.23767940   14.74555051
C     14.86883702   13.59607371   12.88408098
C     15.34579870   13.29424339   11.63241214
C     17.18537229   14.25514710   10.05575222
C     15.74198236   16.75657364   14.81734671
H     17.32597105   15.83527355   12.47872816
H     16.36476356   14.77957840   15.25655191
H     14.60032328   14.85849241   15.20330323
H     14.12464300   13.15252187   13.48428078
H     15.19469243   12.53809261   10.90869986
H     17.96454396   13.50243485   10.07078001
H     17.57963461   15.24686285    9.95254162
H     16.47612414   14.05911524    9.23991488
H     16.61821618   17.03850408   14.27096954
H     14.89190543   17.41003259   14.44565389
H     15.85135914   16.91084079   15.85514981
N     15.64768658   14.63542508   13.36975062
N     16.40408392   14.21533271   11.34983690
C     10.94914009   12.45882779    5.90815109
C      9.22457187   14.52312330    5.90953207
C     11.53019374   14.27793053    7.17715545
C     12.39760527   13.25468045    7.42837824
C     13.06835756   11.11476465    6.25963923
C      8.10899550   14.13181974    6.80061307
H     10.33891785   11.88230178    5.22995371
H      9.00246981   14.26042209    4.87554002
H      9.55317211   15.57587511    6.02874584
H     11.59523078   15.30308647    7.54060473
H     13.25721248   13.17431587    8.06166511
H     12.65915056   10.15173993    5.96244714
H     13.60097560   11.51894185    5.38266974
H     13.77671574   11.11286528    7.06386737
H      8.21582066   14.33259795    7.89583541
H      7.91694159   13.07351592    6.79755115
H      7.16063687   14.64759969    6.51621537
N     10.56149849   13.74575119    6.29054836
N     12.03457667   12.15322129    6.61694438
C      1.71449783    0.44913956    0.93813154
C      3.11501973    1.83447044   -0.52697255
C      1.51969538    2.62187324    1.33465494
C      0.76366346    2.00395126    2.27008003
C      0.19901405   -0.56887075    2.74052157
C      2.51818490    2.18255564   -1.93844566
H      2.01990444   -0.52845335    0.54863341
H      3.73114105    2.72802274   -0.25141925
H      3.63365193    0.93991959   -0.63977484
H      1.72838299    3.66028328    1.16918764
H      0.32455188    2.26925727    3.21479538
H      0.08287064   -1.44312688    1.98865420
H     -0.76225863   -0.14154960    3.09025134
H      0.78098631   -0.90470325    3.61634032
H      2.17390550    3.22651997   -1.89816871
H      3.40218002    2.21412999   -2.57636701
H      1.73420504    1.49405927   -2.36858858
N      2.09282689    1.64166660    0.48791802
N      0.86836789    0.59573361    1.99887720
C     12.44556807    1.34893773   12.20798308
C     12.56590304   -0.90358509   11.16936651
C     11.10813378    0.91598416   10.36972126
C     10.88319954    2.20622997   10.81192947
C     11.87453893    3.58846303   12.74973125
C     13.40270917   -1.31071285    9.90760766
H     13.26638483    1.17617373   12.93983006
H     13.01558242   -1.15887512   12.08544037
H     11.59831567   -1.40907785   10.96896210
H     10.84421760    0.45066054    9.47079082
H     10.22487048    2.91260298   10.45459957
H     12.22828540    3.17045383   13.69016349
H     10.87099261    4.11015742   12.87002848
H     12.50873991    4.36549051   12.45979613
H     13.63290806   -2.37610035   10.19519128
H     14.29793319   -0.66914922    9.87606558
H     12.71074589   -1.17696412    8.99772429
N     12.15693542    0.48520740   11.17898195
N     11.73981703    2.36582585   11.90485126
C      0.64448502    9.02269602    5.11028813
C      1.90385921   10.71022862    3.69073645
C     -0.59568386    9.74579017    3.32167700
C     -1.34284395    8.85779655    4.06041360
C     -1.11571554    7.56837025    6.14038351
C      3.15030498   10.46872722    4.58560393
H      1.45322679    8.74145422    5.83079511
H      2.04608604   10.46565681    2.62624558
H      1.60566511   11.75344192    3.58477926
H     -0.82738332   10.31969403    2.45542548
H     -2.40134264    8.46061597    3.92636807
H     -0.42727275    6.75007298    6.31481566
H     -1.24050078    8.23820035    6.95302447
H     -2.07917926    7.11259369    5.84886973
H      3.87664585   11.05168277    4.08182377
H      3.09812497   10.96314898    5.52236270
H      3.49824663    9.39747665    4.55280403
N      0.66730469    9.90269357    4.03064617
N     -0.56776854    8.41262005    5.10862015
C     14.00187933   16.88272806    6.78300104
C     14.92143902   14.91609834    5.49922798
C     16.05308915   16.22187663    7.40612726
C     15.74435876   17.31592441    8.13267816
C     13.62895095   18.65658272    8.40027351
C     13.85741731   15.20085990    4.42132431
H     13.03235105   17.03821889    6.33438800
H     14.54726917   13.98545524    5.95231279
H     15.94961721   14.88467278    5.00464298
H     16.91110727   15.61634092    7.40372793
H     16.09487244   17.79666333    9.08971958
H     12.64104920   18.23634142    8.47254295
H     14.01611545   18.93471681    9.38590022
H     13.44820689   19.57555659    7.76743294
H     12.82446064   15.05398107    4.82138036
H     13.82941878   16.16820715    3.91839642
H     14.08299694   14.37753781    3.76145414
N     14.93709701   15.94432325    6.61595588
N     14.45408141   17.66493744    7.75067566
C      7.96464687    3.63996465   17.28973531
C      6.01084050    4.75368782   16.03981096
C      8.39226145    4.26375558   15.14908654
C      9.60387989    3.80912970   15.67918089
C     10.32921279    2.77127461   17.92552916
C      5.22681492    4.18397892   14.80677057
H      7.53505103    3.31830976   18.22425947
H      6.01712316    5.83469327   15.97227851
H      5.56259586    4.58237179   17.03846341
H      8.17715612    4.70307728   14.17337893
H     10.62220483    3.82467983   15.31739998
H     11.33126989    3.22506613   17.65141989
H      9.98385908    2.89526147   18.91024709
H     10.40577870    1.69272668   17.65823644
H      5.71051350    4.44051705   13.89081799
H      5.32983189    3.02354841   14.74134988
H      4.17682336    4.42123758   14.92755889
N      7.43568031    4.18143137   16.18909155
N      9.33193322    3.40384471   16.98794276
C      4.99838985    0.11493979    9.04633165
C      6.82243740    1.28092134    7.97261335
C      5.99868114    1.64501896   10.40636776
C      5.09750637    0.89973829   11.09276252
C      3.23599628   -0.73795538   10.70648360
C      6.17700947    2.46245197    7.04976467
H      4.63250024   -0.39102402    8.09643349
H      7.71177694    1.72449392    8.18748365
H      6.76737492    0.35001852    7.35157925
H      6.75081814    2.44907728   10.71516750
H      4.72504039    0.91568289   12.15129411
H      3.56794747   -1.80735552   10.75671539
H      2.50063725   -0.73032454    9.82901299
H      2.79490937   -0.23014181   11.49702617
H      6.68036838    2.56456912    6.11215932
H      6.24717581    3.32822035    7.71233413
H      5.14317141    2.20604934    6.83334233
N      5.98201408    1.04698056    9.10900417
N      4.41362220    0.03154791   10.21605961
C      2.33924557    4.60245616   12.64256345
C      4.34484960    4.90918998   11.17736012
C      3.11428248    6.71571909   12.47102068
C      1.95584843    6.72862476   13.22440207
C      0.43164377    5.04300790   14.21961731
C      4.24440181    5.45674214    9.78625079
H      2.18009412    3.51777681   12.45052109
H      5.42826278    5.22370089   11.55115817
H      4.36838715    3.85881576   11.10266357
H      3.89834471    7.44927471   12.19982221
H      1.30271625    7.49360430   13.56874340
H     -0.41432244    5.59433082   13.88992822
H      0.39983443    3.96281535   13.97886451
H      0.79388524    5.17285527   15.27164469
H      4.58887178    6.52365454    9.71515490
H      4.82894077    4.82500366    9.12636390
H      3.18270550    5.45098511    9.57720636
N      3.25177223    5.37243353   12.05689167
N      1.46441278    5.43414590   13.26670799
C      8.57879161    8.17720849    3.32092858
C      7.94730211    6.52016941    5.07524056
C      7.04063687    6.72130142    2.70626623
C      7.27367564    7.58190705    1.62482988
C      8.96902268    9.30625955    1.08248257
C      7.73108530    5.01172201    5.12242979
H      9.48143935    8.52716299    3.85827472
H      7.05888174    6.81981771    5.61776789
H      8.80093219    6.83229544    5.64924455
H      6.32979761    5.92126716    2.87433618
H      6.85180767    7.83698964    0.67012322
H      9.85025573    9.85316035    1.48998099
H      9.31469709    8.75240767    0.20212503
H      8.21558368   10.00315721    0.80271491
H      6.80618388    4.66711808    4.64122426
H      8.51412730    4.32705367    4.83562234
H      7.77082032    4.86132043    6.22156632
N      7.86885678    7.08361650    3.73986052
N      8.30113905    8.40618838    2.04585831
C      3.16820683   11.35600411    0.43546388
C      3.67226825   13.34187725    1.81651199
C      5.38603630   11.39723480    1.03286165
C      5.13651877   10.19200591    0.32256383
C      3.08332976    9.08198069   -0.67963045
C      4.58287758   14.56343235    1.66502732
H      2.04029651   11.49718650    0.52351008
H      3.63691828   13.17217053    2.85618909
H      2.64679504   13.43039626    1.54990349
H      6.31164725   11.81329629    1.42765693
H      5.79261631    9.41851646   -0.13353868
H      3.20550255    8.10499758   -0.13551914
H      3.54064913    8.96429543   -1.62667260
H      2.01042303    9.30967636   -0.72692912
H      5.44906391   14.42430887    2.33015394
H      4.86082491   14.81018204    0.68904340
H      4.00942310   15.44532607    2.09359649
N      4.16732612   12.03302470    1.07987892
N      3.73963128   10.21413206   -0.02367669
C     12.49423113   14.21574358    0.74847815
C     11.48755131   11.90849287    1.28407219
C     10.39270892   14.17237306    1.56110927
C     10.74541285   15.48022917    1.40454802
C     12.84844071   16.71008290    0.59801600
C     12.68955430   11.18655111    2.00398374
H     13.47838318   13.87635436    0.41732982
H     11.44423721   11.56459723    0.25610316
H     10.47982880   11.64529928    1.78419120
H      9.46459328   13.80369003    2.03411121
H     10.13482133   16.36034121    1.41506473
H     13.97951079   16.34404558    0.46326927
H     12.85918405   17.50435147    1.36112183
H     12.61024242   16.99871972   -0.39946382
H     13.55618257   11.06351294    1.36726118
H     12.39117187   10.21711702    2.31867742
H     13.04468901   11.66681894    2.95452062
N     11.46445936   13.41431870    1.15033079
N     12.06962248   15.46723382    0.94166655
C      7.44321979    1.11801560    2.74225098
C      7.17272472   -0.07719813    3.80906792
H      7.53897675    0.35764193    4.71257124
H      5.96430791   -0.22481959    3.82312469
H      7.60008560   -1.01455919    3.39436736
O      6.95134497    2.22945081    3.11988633
O      8.07197387    0.81190421    1.60346588
C      8.14201952   11.67901541    3.50080856
C      7.06410753   11.65050247    4.51784780
H      6.76777239   10.62064834    4.85738143
H      6.06163406   12.06864104    4.38190338
H      7.35960602   12.09619665    5.49777158
O      7.99865670   12.35902825    2.47288592
O      9.19970326   11.07666414    3.98888292
C     15.25520832    8.51584256   13.23788334
C     14.16899706    9.33950370   12.56169976
H     13.37334539    8.70221061   12.07486189
H     13.69089468   10.21737244   13.05066281
H     14.68289056    9.86114560   11.66810557
O     15.28014254    7.27139825   12.94454032
O     15.97837544    9.14204222   14.03852774
C      3.32696748    7.55119631    6.78535971
C      4.85901791    7.28925873    6.71683996
H      5.26424305    7.70967682    5.70618905
H      5.30014085    7.91296157    7.47452307
H      5.17056935    6.25296697    6.73335636
O      2.61919975    6.61139582    6.27456603
O      2.97398503    8.66436633    7.28754295
C     15.71008480   11.37073986    8.54090054
C     16.85413959   11.02826350    7.56379693
H     17.57617943   11.87872189    7.38451046
H     16.42093567   10.87313018    6.55028850
H     17.25763619   10.08588162    7.77683920
O     15.26992260   10.48694476    9.41656535
O     15.13923479   12.50449650    8.37443550
C     11.62437094   12.65383527   14.41895825
C     10.88619606   13.92194215   13.97521964
H     11.44497791   14.81802758   13.50175400
H     10.18286775   13.60955662   13.24409980
H     10.22925816   14.29634036   14.68435544
O     10.96817418   11.58972696   14.47527280
O     12.85214247   12.88886704   14.83671658
C     16.37713584    1.95463936   11.63440181
C     15.31736570    3.01567537   11.91952122
H     14.49505608    2.90984674   11.20676068
H     14.80203831    2.96087027   12.89705675
H     15.72479747    4.01321148   11.85680418
O     15.91574812    0.90947056   10.96326017
O     17.53702574    2.23914152   12.02045049
C      7.58477891   13.90924040   10.60430124
C      8.78282342   14.80289712   10.88971734
H      8.41539443   15.77029537   10.53043438
H      9.64020037   14.48517637   10.19178350
H      9.11149387   14.78375638   11.92371806
O      6.50132817   14.30012320   11.15294923
O      7.75863373   12.94640957    9.78231146
C      3.28559970   15.16484579   15.00035813
C      2.95057939   14.33554620   13.78201547
H      2.29288106   14.86443441   13.13582222
H      2.33145555   13.41368481   14.08179860
H      3.87918098   13.95613045   13.27124555
O      4.34001384   15.89583626   14.92851026
O      2.58656527   15.05552290   16.03500957
C      8.40803547    4.98674509   11.03454500
C      7.93360101    6.09319158   10.06339960
H      8.47476258    7.08865970    9.96096276
H      7.85143095    5.66656126    9.07380992
H      6.88355698    6.25936742   10.36523320
O      7.74176003    3.90098846   11.11359203
O      9.40444761    5.36725845   11.73356695
C      3.02808314    5.88123311    0.83222053
C      1.68748515    6.15978821    1.77555509
H      1.60721192    7.24298961    1.95527553
H      0.79025212    5.84720439    1.20814483
H      1.74971357    5.70334536    2.71764958
O      4.06238338    6.52279193    1.22669350
O      2.93251439    4.96292299   -0.05822128
C     16.23556567   12.72594289    0.73947455
C     16.35918106   12.02581304   -0.65327946
H     15.35167686   12.01843141   -1.21874608
H     16.64809236   10.95239067   -0.68302673
H     17.06858281   12.59676461   -1.18989705
O     16.86313781   12.03494764    1.65701811
O     15.47419612   13.76553527    0.97413490
C     13.67821118    3.14731580   15.74681704
C     15.09435024    3.39402249   16.27946200
H     15.43716593    4.44952779   16.38361781
H     15.80941238    2.82929484   15.65142729
H     15.03426383    3.05296825   17.35538158
O     13.41730093    2.15080688   14.99577208
O     12.71915034    3.87795977   16.22390760
C     14.63237030    2.73254006    4.80769231
C     14.74812563    4.21909126    4.46994317
H     15.45798523    4.67165004    5.17866051
H     13.77427962    4.68624022    4.54320723
H     15.03304407    4.35141106    3.38755611
O     15.80487342    2.21721305    5.07658554
O     13.52348317    2.16398867    4.79762864
C      6.29230408    8.41929382   14.05139031
C      6.81086377    7.09515820   13.50283205
H      6.05196986    6.32691324   13.34189835
H      7.34188247    7.26096149   12.50199428
H      7.57857068    6.54046193   14.06777721
O      5.35173071    8.89571298   13.38325810
O      6.82855455    8.92549771   15.11450271
C     11.81215289    7.24008844    4.62536894
C     11.67872278    6.03736008    3.59306356
H     11.00937691    5.41885305    4.21361691
H     11.07748019    6.15403428    2.63751158
H     12.64000457    5.66570357    3.28470512
O     11.22192861    8.33328996    4.39486000
O     12.53081100    7.06630470    5.64374530
C      2.61887976   14.51538138    6.77465546
C      2.84574779   14.37520678    5.29944659
H      2.95690889   15.28085889    4.72213010
H      3.76174341   13.80557904    5.25714480
H      2.11295256   13.79285692    4.76065229
O      2.87316016   15.63951367    7.28211166
O      2.34626377   13.39328622    7.33401899
C     10.42169891    1.48649162    6.61321670
C     10.11635990    1.88773667    5.13418361
H      9.74867044    2.86730137    5.15543642
H     11.13020276    1.91181895    4.52385789
H      9.38831036    1.22560081    4.59143739
O     11.17618454    0.46810471    6.77660905
O      9.86622159    2.08838184    7.59843727
